# Name: AMP
# Created by ModelServer 0.9.11

# model_server_result.job_id: 93-5t6ZLXWLavyDlkEU7YQ
# model_server_result.datetime_utc: 2024-05-19 12:10:22
# model_server_result.server_version: 0.9.11
# model_server_result.query_name: ligand
# model_server_result.source_id: pdb-bcif
# model_server_result.entry_id: 1z6s

# model_server_params.name: atom_site
# model_server_params.value: {"label_asym_id":"C","auth_seq_id":1101}

# model_server_stats.io_time_ms: 6
# model_server_stats.parse_time_ms: 58
# model_server_stats.create_model_time_ms: 5
# model_server_stats.query_time_ms: 266
# model_server_stats.encode_time_ms: 0
# model_server_stats.element_count: 36

@<TRIPOS>MOLECULE
AMP
23 25 1
****
****

@<TRIPOS>ATOM
1 P 36.564 3.277 13.517 P.3 1 AMP 0.000
2 O1P 35.057 3.401 13.643 O.2 1 AMP 0.000
3 O2P 37.220 4.152 12.481 O.3 1 AMP 0.000
4 O3P 37.124 1.871 13.603 O.3 1 AMP 0.000
5 O5' 37.079 3.879 14.908 O.3 1 AMP 0.000
6 C5' 37.018 5.273 15.193 C.3 1 AMP 0.000
7 C4' 38.104 5.572 16.211 C.3 1 AMP 0.000
8 O4' 37.574 5.431 17.540 O.3 1 AMP 0.000
9 C3' 39.266 4.579 16.095 C.3 1 AMP 0.000
10 O3' 40.509 5.276 15.932 O.3 1 AMP 0.000
11 C2' 39.257 3.788 17.397 C.3 1 AMP 0.000
12 O2' 40.589 3.481 17.843 O.3 1 AMP 0.000
13 C1' 38.533 4.734 18.347 C.3 1 AMP 0.000
14 N9 37.897 4.044 19.501 N.ar 1 AMP 0.000
15 C8 38.149 2.782 19.934 C.ar 1 AMP 0.000
16 N7 37.405 2.475 21.010 N.ar 1 AMP 0.000
17 C5 36.671 3.559 21.282 C.ar 1 AMP 0.000
18 C6 35.680 3.893 22.295 C.ar 1 AMP 0.000
19 N6 35.373 2.946 23.229 N.pl3 1 AMP 0.000
20 N1 35.125 5.149 22.245 N.ar 1 AMP 0.000
21 C2 35.460 6.058 21.307 C.ar 1 AMP 0.000
22 N3 36.369 5.807 20.338 N.ar 1 AMP 0.000
23 C4 36.990 4.593 20.293 C.ar 1 AMP 0.000
@<TRIPOS>BOND
1 1 2 2
2 1 3 1
3 1 4 1
4 1 5 1
5 5 6 1
6 6 7 1
7 7 8 1
8 7 9 1
9 8 13 1
10 9 10 1
11 9 11 1
12 11 12 1
13 11 13 1
14 13 14 1
15 14 15 ar
16 14 23 ar
17 15 16 ar
18 16 17 ar
19 17 18 ar
20 17 23 ar
21 18 19 1
22 18 20 ar
23 20 21 ar
24 21 22 ar
25 22 23 ar
@<TRIPOS>SUBSTRUCTURE
1 AMP 1
